Version 4
SHEET 1 880 680
WIRE 192 -80 -336 -80
WIRE -16 32 -160 32
WIRE 64 32 -16 32
WIRE 192 32 192 -80
WIRE 192 32 128 32
WIRE -336 64 -336 -80
WIRE -16 128 -16 32
WIRE 192 128 192 32
WIRE -336 272 -336 144
WIRE -272 272 -336 272
WIRE -16 272 -16 192
WIRE -16 272 -272 272
WIRE 64 272 -16 272
WIRE 192 272 192 192
WIRE 192 272 128 272
WIRE 288 272 192 272
WIRE -272 304 -272 272
WIRE -160 352 -160 32
WIRE 208 352 -160 352
WIRE 208 368 208 352
WIRE 288 368 288 272
FLAG -272 304 0
FLAG -336 -80 Vin001
FLAG 288 272 Vout001
SYMBOL diode 176 128 R0
SYMATTR InstName D1
SYMBOL diode -32 128 R0
SYMATTR InstName D2
SYMBOL diode 64 48 R270
WINDOW 0 32 32 VTop 2
WINDOW 3 0 32 VBottom 2
SYMATTR InstName D3
SYMBOL diode 64 288 R270
WINDOW 0 32 32 VTop 2
WINDOW 3 0 32 VBottom 2
SYMATTR InstName D4
SYMBOL res 192 384 R270
WINDOW 0 32 56 VTop 2
WINDOW 3 0 56 VBottom 2
SYMATTR InstName R1
SYMATTR Value 1k
SYMBOL voltage -336 48 R0
WINDOW 123 0 0 Left 0
WINDOW 39 0 0 Left 0
SYMATTR InstName V1
SYMATTR Value SINE(0 5 1k 0)
TEXT 440 272 Left 2 !.tran 0 7m 0 1u
