Version 4
SHEET 1 880 680
WIRE 160 -96 64 -96
WIRE 384 -96 240 -96
WIRE 160 80 160 32
WIRE -64 96 -128 96
WIRE 64 96 64 -96
WIRE 64 96 16 96
WIRE 128 96 64 96
WIRE 384 112 384 -96
WIRE 384 112 192 112
WIRE 448 112 384 112
WIRE 128 128 16 128
WIRE -128 144 -128 96
WIRE 16 160 16 128
WIRE 160 192 160 144
WIRE 736 272 736 240
WIRE 800 272 736 272
WIRE 592 288 592 256
WIRE 640 288 592 288
WIRE 400 304 400 272
WIRE 464 304 400 304
WIRE 640 304 640 288
WIRE 800 304 800 272
WIRE 464 432 464 384
WIRE 640 432 640 384
WIRE 800 432 800 384
FLAG 16 160 Vin001
FLAG -128 144 0
FLAG 160 32 Vs+
FLAG 160 192 Vs-
FLAG 448 112 Vout001
FLAG 464 432 0
FLAG 640 432 0
FLAG 800 432 0
FLAG 400 272 Vin001
FLAG 592 256 Vs+
FLAG 736 240 Vs-
SYMBOL OpAmps\\OP07 160 48 R0
SYMATTR InstName U1
SYMBOL res -80 112 R270
WINDOW 0 32 56 VTop 2
WINDOW 3 0 56 VBottom 2
SYMATTR InstName R1
SYMATTR Value 1k
SYMBOL res 144 -80 R270
WINDOW 0 32 56 VTop 2
WINDOW 3 0 56 VBottom 2
SYMATTR InstName Rf
SYMATTR Value 1.8k
SYMBOL voltage 464 288 R0
WINDOW 3 -188 102 Left 2
WINDOW 123 0 0 Left 0
WINDOW 39 0 0 Left 0
SYMATTR InstName V1
SYMATTR Value SINE(0 5 100)
SYMBOL voltage 640 288 R0
SYMATTR InstName V2
SYMATTR Value 12V
SYMBOL voltage 800 288 R0
SYMATTR InstName V3
SYMATTR Value -12V
TEXT 416 -112 Left 2 !.tran 0 50ms 0 10u
