Version 4
SHEET 1 880 680
WIRE 304 -80 208 -80
WIRE -176 -64 -256 -64
WIRE -256 -32 -256 -64
WIRE 304 -32 304 -80
WIRE -256 48 -320 48
WIRE -176 80 -256 80
WIRE 304 80 304 48
WIRE 304 80 208 80
WIRE 560 80 304 80
WIRE -256 112 -256 80
WIRE 304 112 304 80
WIRE 256 192 208 192
WIRE -320 208 -320 48
WIRE -320 208 -384 208
WIRE -256 208 -256 192
WIRE -256 208 -320 208
WIRE 560 224 560 80
WIRE -384 240 -384 208
WIRE -176 256 -256 256
WIRE -256 288 -256 256
WIRE 304 288 304 208
WIRE 512 304 480 304
WIRE 256 368 208 368
WIRE -320 384 -320 208
WIRE -256 384 -256 368
WIRE -256 384 -320 384
WIRE 560 384 560 320
WIRE 560 384 304 384
WIRE 304 416 304 384
WIRE -176 480 -256 480
WIRE -256 544 -256 480
WIRE -320 624 -320 384
WIRE -256 624 -320 624
FLAG 304 416 0
FLAG -176 -64 Vcc
FLAG 208 -80 Vcc
FLAG -176 80 x
FLAG 208 192 x
FLAG -176 256 y
FLAG 208 368 y
FLAG -384 240 0
FLAG -176 480 z
FLAG 480 304 z
FLAG 208 80 out02
SYMBOL nmos 256 112 R0
SYMATTR InstName M1
SYMBOL nmos 256 288 R0
SYMATTR InstName M2
SYMBOL res 288 -48 R0
SYMATTR InstName R1
SYMATTR Value 100k
SYMBOL voltage -256 -48 R0
SYMATTR InstName V1
SYMATTR Value 5
SYMBOL voltage -256 96 R0
SYMATTR InstName V2
SYMATTR Value 5
SYMBOL voltage -256 272 R0
SYMATTR InstName V3
SYMATTR Value 0
SYMBOL voltage -256 528 R0
SYMATTR InstName V4
SYMATTR Value 0
SYMBOL nmos 512 224 R0
SYMATTR InstName M3
TEXT -72 400 Left 2 !.op
