Version 4
SHEET 1 880 680
WIRE 304 -80 208 -80
WIRE -176 -64 -256 -64
WIRE -256 -32 -256 -64
WIRE 304 -32 304 -80
WIRE -256 48 -320 48
WIRE -320 64 -320 48
WIRE -176 80 -256 80
WIRE 304 80 304 48
WIRE 416 80 304 80
WIRE -256 112 -256 80
WIRE 304 112 304 80
WIRE 256 192 208 192
WIRE -256 208 -256 192
WIRE -256 208 -320 208
WIRE -320 224 -320 208
WIRE -176 256 -256 256
WIRE -256 288 -256 256
WIRE 304 288 304 208
WIRE 256 368 208 368
WIRE -256 384 -256 368
WIRE -256 384 -320 384
WIRE -320 400 -320 384
WIRE 304 416 304 384
FLAG -320 64 0
FLAG -320 224 0
FLAG -320 400 0
FLAG 304 416 0
FLAG -176 -64 Vcc
FLAG 208 -80 Vcc
FLAG -176 80 x
FLAG 208 192 x
FLAG -176 256 y
FLAG 208 368 y
FLAG 416 80 out
SYMBOL nmos 256 112 R0
SYMATTR InstName M1
SYMBOL nmos 256 288 R0
SYMATTR InstName M2
SYMBOL res 288 -48 R0
SYMATTR InstName R1
SYMATTR Value 100k
SYMBOL voltage -256 -48 R0
SYMATTR InstName Vsupply
SYMATTR Value 5
SYMBOL voltage -256 96 R0
SYMATTR InstName Vx
SYMATTR Value 5
SYMBOL voltage -256 272 R0
SYMATTR InstName Vy
SYMATTR Value 5
TEXT -72 400 Left 2 !.op
